REMARK  Name = 1983
REMARK  3 active torsions:
REMARK  status: ('A' for Active; 'I' for Inactive)
REMARK    1  A    between atoms: O_1  and  C_9
REMARK    2  A    between atoms: N_3  and  C_4
REMARK    3  A    between atoms: C_10  and  C_11
REMARK                            x       y       z     vdW  Elec       q    Type
REMARK                         _______ _______ _______ _____ _____    ______ ____
ROOT
ATOM      4  C   UNL     1       2.866   0.405   0.000  0.00  0.00    +0.000 A 
ATOM      5  C   UNL     1       2.000  -0.095   0.000  0.00  0.00    +0.000 A 
ATOM      6  C   UNL     1       3.732  -0.095   0.000  0.00  0.00    +0.000 A 
ATOM      7  C   UNL     1       2.000  -1.095   0.000  0.00  0.00    +0.000 A 
ATOM      8  C   UNL     1       3.732  -1.095   0.000  0.00  0.00    +0.000 A 
ATOM      9  C   UNL     1       2.866  -1.595   0.000  0.00  0.00    +0.000 A 
ENDROOT
BRANCH   4   3
ATOM      2  O   UNL     1       4.598   1.405   0.000  0.00  0.00    +0.000 OA
ATOM      3  N   UNL     1       2.866   1.405   0.000  0.00  0.00    +0.000 N 
ATOM     10  C   UNL     1       3.732   1.905   0.000  0.00  0.00    +0.000 C 
ATOM     11  C   UNL     1       3.732   2.905   0.000  0.00  0.00    +0.000 C 
ATOM     12  H   UNL     1       2.329   1.715   0.000  0.00  0.00    +0.000 HD
ENDBRANCH   4   3
BRANCH   9   1
ATOM      1  O   UNL     1       2.866  -2.595   0.000  0.00  0.00    +0.000 OA
ATOM     13  H   UNL     1       2.329  -2.905   0.000  0.00  0.00    +0.000 HD
ENDBRANCH   9   1
TORSDOF 2
