REMARK  Name = 2244
REMARK  5 active torsions:
REMARK  status: ('A' for Active; 'I' for Inactive)
REMARK    1  A    between atoms: O_1  and  C_5
REMARK    2  A    between atoms: O_1  and  C_12
REMARK    3  A    between atoms: O_2  and  C_11
REMARK    4  A    between atoms: C_6  and  C_11
REMARK    5  A    between atoms: C_12  and  C_13
REMARK                            x       y       z     vdW  Elec       q    Type
REMARK                         _______ _______ _______ _____ _____    ______ ____
ROOT
ATOM      5  C   UNL     1       4.598  -0.560   0.000  0.00  0.00    +0.000 A 
ATOM      6  C   UNL     1       5.464  -0.060   0.000  0.00  0.00    +0.000 A 
ATOM      7  C   UNL     1       4.598  -1.560   0.000  0.00  0.00    +0.000 A 
ATOM      8  C   UNL     1       6.330  -0.560   0.000  0.00  0.00    +0.000 A 
ATOM      9  C   UNL     1       5.464  -2.060   0.000  0.00  0.00    +0.000 A 
ATOM     10  C   UNL     1       6.330  -1.560   0.000  0.00  0.00    +0.000 A 
ENDROOT
BRANCH   6  11
ATOM      3  O   UNL     1       4.598   1.440   0.000  0.00  0.00    +0.000 OA
ATOM     11  C   UNL     1       5.464   0.940   0.000  0.00  0.00    +0.000 C 
BRANCH  11   2
ATOM      2  O   UNL     1       6.330   1.440   0.000  0.00  0.00    +0.000 OA
ATOM     14  H   UNL     1       6.330   2.060   0.000  0.00  0.00    +0.000 HD
ENDBRANCH  11   2
ENDBRANCH   6  11
BRANCH   5   1
ATOM      1  O   UNL     1       3.732  -0.060   0.000  0.00  0.00    +0.000 OA
BRANCH   1  12
ATOM      4  O   UNL     1       2.866  -1.560   0.000  0.00  0.00    +0.000 OA
ATOM     12  C   UNL     1       2.866  -0.560   0.000  0.00  0.00    +0.000 C 
ATOM     13  C   UNL     1       2.000  -0.060   0.000  0.00  0.00    +0.000 C 
ENDBRANCH   1  12
ENDBRANCH   5   1
TORSDOF 4
